** Generated for: hspiceD
** Generated on: Dec 2, 2024
** Design library name: final_project
** Design cell name: Adder_Comp
** Design view name: schematic

.TEMP 25.0
.OPTION
+    ARTIST=2
+    INGOLD=2
+    PARHIER=LOCAL
+    PSF=2

** Subcircuit Definitions

** Pass-Transistor Logic XOR Gate
.subckt ptl_Xor a b bnot out vdd vss
mnm1 out a bnot vss g45n1svt L=45e-9 W=120e-9 AD=16.8e-15 AS=16.8e-15 PD=520e-9 PS=520e-9 NRD=1.16667 NRS=1.16667 M=1
mnm0 a bnot out vss g45n1svt L=45e-9 W=120e-9 AD=16.8e-15 AS=16.8e-15 PD=520e-9 PS=520e-9 NRD=1.16667 NRS=1.16667 M=1
mpm1 out a b vdd g45p1svt L=45e-9 W=240e-9 AD=33.6e-15 AS=33.6e-15 PD=760e-9 PS=760e-9 NRD=583.333e-3 NRS=583.333e-3 M=1
mpm0 a b out vdd g45p1svt L=45e-9 W=240e-9 AD=33.6e-15 AS=33.6e-15 PD=760e-9 PS=760e-9 NRD=583.333e-3 NRS=583.333e-3 M=1
.ends ptl_Xor

** Inverter
.subckt inv_n120 d q vdd vss
mpm0 q d vdd vdd g45p1svt L=45e-9 W=240e-9 AD=33.6e-15 AS=33.6e-15 PD=760e-9 PS=760e-9 NRD=583.333e-3 NRS=583.333e-3 M=1
mnm0 q d vss vss g45n1svt L=45e-9 W=120e-9 AD=16.8e-15 AS=16.8e-15 PD=520e-9 PS=520e-9 NRD=1.16667 NRS=1.16667 M=1
.ends inv_n120

** XOR Gate
.subckt XOR a b out vdd vss
xi0 a b net1 out vdd vss ptl_Xor
xi1 b net1 vdd vss inv_n120
.ends XOR

** AND
** AND Gate
.subckt AND a b bnot out vdd vss
mnm1 out bnot vss vss g45n1svt L=45e-9 W=120e-9 AD=16.8e-15 AS=16.8e-15 PD=520e-9 PS=520e-9 NRD=1.16667 NRS=1.16667 M=1
mnm0 a b out vss g45n1svt L=45e-9 W=120e-9 AD=16.8e-15 AS=16.8e-15 PD=520e-9 PS=520e-9 NRD=1.16667 NRS=1.16667 M=1
mpm0 out bnot a vdd g45p1svt L=45e-9 W=240e-9 AD=33.6e-15 AS=33.6e-15 PD=760e-9 PS=760e-9 NRD=583.333e-3 NRS=583.333e-3 M=1
.ends AND

** Half Adder
.subckt HalfAdder a b cout s vdd vss
xi0 a b net1 cout vdd vss AND
xi1 a b net1 s vdd vss ptl_Xor
xi2 b net1 vdd vss inv_n120
.ends HalfAdder

** Cout Logic
.subckt CoutLogic a coutnot cin p pnot vdd vss
mpm3 coutnot p net3 vdd g45p1svt L=45e-9 W=240e-9 AD=33.6e-15 AS=33.6e-15 PD=760e-9 PS=760e-9 NRD=583.333e-3 NRS=583.333e-3 M=1
mpm2 net3 a vdd vdd g45p1svt L=45e-9 W=240e-9 AD=33.6e-15 AS=33.6e-15 PD=760e-9 PS=760e-9 NRD=583.333e-3 NRS=583.333e-3 M=1
mpm1 coutnot cin net2 vdd g45p1svt L=45e-9 W=240e-9 AD=33.6e-15 AS=33.6e-15 PD=760e-9 PS=760e-9 NRD=583.333e-3 NRS=583.333e-3 M=1
mpm0 net2 pnot vdd vdd g45p1svt L=45e-9 W=240e-9 AD=33.6e-15 AS=33.6e-15 PD=760e-9 PS=760e-9 NRD=583.333e-3 NRS=583.333e-3 M=1
mnm3 net4 a vss vss g45n1svt L=45e-9 W=120e-9 AD=16.8e-15 AS=16.8e-15 PD=520e-9 PS=520e-9 NRD=1.16667 NRS=1.16667 M=1
mnm2 coutnot pnot net4 vss g45n1svt L=45e-9 W=120e-9 AD=16.8e-15 AS=16.8e-15 PD=520e-9 PS=520e-9 NRD=1.16667 NRS=1.16667 M=1
mnm1 net1 p vss vss g45n1svt L=45e-9 W=120e-9 AD=16.8e-15 AS=16.8e-15 PD=520e-9 PS=520e-9 NRD=1.16667 NRS=1.16667 M=1
mnm0 coutnot cin net1 vss g45n1svt L=45e-9 W=120e-9 AD=16.8e-15 AS=16.8e-15 PD=520e-9 PS=520e-9 NRD=1.16667 NRS=1.16667 M=1
.ends CoutLogic

** Full Adder
.subckt FullAdder a b cin cout s vdd vss
xi1 cin net1 s vdd vss XOR
xi0 a b net1 vdd vss XOR
xi3 net3 cout vdd vss inv_n120
xi2 net1 net2 vdd vss inv_n120
xi4 a net3 cin net1 net2 vdd vss CoutLogic
.ends FullAdder

** Adder_Comp
.subckt Adder_Comp x0 x1 x2 x3 y0 y1 y2 y3 r0 r1 r2 vdd vss
xi3 x3 y3 net3 vdd vss XOR
xi2 x2 y2 net4 vdd vss XOR
xi1 x1 y1 net2 vdd vss XOR
xi0 x0 y0 net1 vdd vss XOR
xi6 net5 net6 net9 r0 vdd vss HalfAdder
xi5 net3 net4 net8 net6 vdd vss HalfAdder
xi4 net1 net2 net10 net5 vdd vss HalfAdder
xi7 net8 net10 net9 r2 r1 vdd vss FullAdder
.ends Adder_Comp

$SHIFT
.subckt c2mos_pos_reg_reset clk clk_bar d q reset vdd vss
mnm4 q reset vss vss g45n1svt L=45e-9 W=480e-9 AD=67.2e-15 AS=67.2e-15 PD=1.24e-6 PS=1.24e-6 NRD=291.667e-3 NRS=291.667e-3 M=1
mnm2 q clk net25 vss g45n1svt L=45e-9 W=120e-9 AD=16.8e-15 AS=16.8e-15 PD=520e-9 PS=520e-9 NRD=1.16667 NRS=1.16667 M=1
mnm0 net22 clk_bar net23 vss g45n1svt L=45e-9 W=120e-9 AD=16.8e-15 AS=16.8e-15 PD=520e-9 PS=520e-9 NRD=1.16667 NRS=1.16667 M=1
mnm3 net25 net22 vss vss g45n1svt L=45e-9 W=120e-9 AD=16.8e-15 AS=16.8e-15 PD=520e-9 PS=520e-9 NRD=1.16667 NRS=1.16667 M=1
mnm1 net23 d vss vss g45n1svt L=45e-9 W=120e-9 AD=16.8e-15 AS=16.8e-15 PD=520e-9 PS=520e-9 NRD=1.16667 NRS=1.16667 M=1
mpm3 net21 d vdd vdd g45p1svt L=45e-9 W=240e-9 AD=33.6e-15 AS=33.6e-15 PD=760e-9 PS=760e-9 NRD=583.333e-3 NRS=583.333e-3 M=1
mpm1 net24 net22 vdd vdd g45p1svt L=45e-9 W=240e-9 AD=33.6e-15 AS=33.6e-15 PD=760e-9 PS=760e-9 NRD=583.333e-3 NRS=583.333e-3 M=1
mpm2 net22 clk net21 vdd g45p1svt L=45e-9 W=240e-9 AD=33.6e-15 AS=33.6e-15 PD=760e-9 PS=760e-9 NRD=583.333e-3 NRS=583.333e-3 M=1
mpm0 q clk_bar net24 vdd g45p1svt L=45e-9 W=240e-9 AD=33.6e-15 AS=33.6e-15 PD=760e-9 PS=760e-9 NRD=583.333e-3 NRS=583.333e-3 M=1
.ends c2mos_pos_reg_reset

.subckt MUX2 in0 in1 out s vdd vss
mnm5 in1 s out vss g45n1svt L=45e-9 W=120e-9 AD=16.8e-15 AS=16.8e-15 PD=520e-9 PS=520e-9 NRD=1.16667 NRS=1.16667 M=1
mnm3 net4 s vss vss g45n1svt L=45e-9 W=120e-9 AD=16.8e-15 AS=16.8e-15 PD=520e-9 PS=520e-9 NRD=1.16667 NRS=1.16667 M=1
mnm6 in0 net4 out vss g45n1svt L=45e-9 W=120e-9 AD=16.8e-15 AS=16.8e-15 PD=520e-9 PS=520e-9 NRD=1.16667 NRS=1.16667 M=1
mpm5 out net4 in1 vdd g45p1svt L=45e-9 W=240e-9 AD=33.6e-15 AS=33.6e-15 PD=760e-9 PS=760e-9 NRD=583.333e-3 NRS=583.333e-3 M=1
mpm3 net4 s vdd vdd g45p1svt L=45e-9 W=240e-9 AD=33.6e-15 AS=33.6e-15 PD=760e-9 PS=760e-9 NRD=583.333e-3 NRS=583.333e-3 M=1
mpm4 out s in0 vdd g45p1svt L=45e-9 W=240e-9 AD=33.6e-15 AS=33.6e-15 PD=760e-9 PS=760e-9 NRD=583.333e-3 NRS=583.333e-3 M=1
.ends MUX2

.subckt PISO_4bit clk clk_bar out r0 r1 r2 reset s vdd vss
xi3 clk clk_bar net7 out reset vdd vss c2mos_pos_reg_reset
xi2 clk clk_bar net5 net6 reset vdd vss c2mos_pos_reg_reset
xi1 clk clk_bar net3 net4 reset vdd vss c2mos_pos_reg_reset
xi11 r0 net6 net7 s vdd vss MUX2
xi9 r2 vdd net3 s vdd vss MUX2
xi10 r1 net4 net5 s vdd vss MUX2
.ends PISO_4bit

.subckt OR2 a b out vdd vss
mnm2 out net1 vss vss g45n1svt L=45e-9 W=120e-9 AD=16.8e-15 AS=16.8e-15 PD=520e-9 PS=520e-9 NRD=1.16667 NRS=1.16667 M=1
mnm1 net1 b vss vss g45n1svt L=45e-9 W=120e-9 AD=16.8e-15 AS=16.8e-15 PD=520e-9 PS=520e-9 NRD=1.16667 NRS=1.16667 M=1
mnm0 net1 a vss vss g45n1svt L=45e-9 W=120e-9 AD=16.8e-15 AS=16.8e-15 PD=520e-9 PS=520e-9 NRD=1.16667 NRS=1.16667 M=1
mpm2 out net1 vdd vdd g45p1svt L=45e-9 W=240e-9 AD=33.6e-15 AS=33.6e-15 PD=760e-9 PS=760e-9 NRD=583.333e-3 NRS=583.333e-3 M=1
mpm1 net2 a vdd vdd g45p1svt L=45e-9 W=240e-9 AD=33.6e-15 AS=33.6e-15 PD=760e-9 PS=760e-9 NRD=583.333e-3 NRS=583.333e-3 M=1
mpm0 net1 b net2 vdd g45p1svt L=45e-9 W=240e-9 AD=33.6e-15 AS=33.6e-15 PD=760e-9 PS=760e-9 NRD=583.333e-3 NRS=583.333e-3 M=1
.ends OR2

.subckt c2mos_pos_reg clk clk_bar d q vdd vss
mnm3 net5 net2 vss vss g45n1svt L=45e-9 W=120e-9 AD=16.8e-15 AS=16.8e-15 PD=520e-9 PS=520e-9 NRD=1.16667 NRS=1.16667 M=1
mnm2 q clk net5 vss g45n1svt L=45e-9 W=120e-9 AD=16.8e-15 AS=16.8e-15 PD=520e-9 PS=520e-9 NRD=1.16667 NRS=1.16667 M=1
mnm1 net1 d vss vss g45n1svt L=45e-9 W=120e-9 AD=16.8e-15 AS=16.8e-15 PD=520e-9 PS=520e-9 NRD=1.16667 NRS=1.16667 M=1
mnm0 net2 clk_bar net1 vss g45n1svt L=45e-9 W=120e-9 AD=16.8e-15 AS=16.8e-15 PD=520e-9 PS=520e-9 NRD=1.16667 NRS=1.16667 M=1
mpm3 net4 d vdd vdd g45p1svt L=45e-9 W=240e-9 AD=33.6e-15 AS=33.6e-15 PD=760e-9 PS=760e-9 NRD=583.333e-3 NRS=583.333e-3 M=1
mpm2 net2 clk net4 vdd g45p1svt L=45e-9 W=240e-9 AD=33.6e-15 AS=33.6e-15 PD=760e-9 PS=760e-9 NRD=583.333e-3 NRS=583.333e-3 M=1
mpm1 net3 net2 vdd vdd g45p1svt L=45e-9 W=240e-9 AD=33.6e-15 AS=33.6e-15 PD=760e-9 PS=760e-9 NRD=583.333e-3 NRS=583.333e-3 M=1
mpm0 q clk_bar net3 vdd g45p1svt L=45e-9 W=240e-9 AD=33.6e-15 AS=33.6e-15 PD=760e-9 PS=760e-9 NRD=583.333e-3 NRS=583.333e-3 M=1
.ends c2mos_pos_reg

.subckt SHIFT_AND_CLK_DIVIDER clk clk4 s vdd vss
xi6 clk4 net13 s vdd vss OR2
xi3 clk4 net11 vdd vss inv_n120
xi2 net13 net9 vdd vss inv_n120
xi4 net13 net12 vdd vss inv_n120
xi5 clk net10 vdd vss inv_n120
xi1 net13 net12 net11 clk4 vdd vss c2mos_pos_reg
xi0 clk net10 net9 net13 vdd vss c2mos_pos_reg
.ends SHIFT_AND_CLK_DIVIDER


$rest parts
c1 vdd vss 15.0021e-15
c2 piso_out vss 1.45992e-15
c3 vddio vss 80.0859e-15
c4 chipdriverout vss 91.0963e-15
c5 net1 vss 1.89628e-15
c6 net3 vss 3.63978e-15
c7 net4 vss 25.0655e-15
c8 net2 vss 1.10886e-15
c9 i8__net1 vss 79.9313e-15
c10 i6__outinv vss 1.15193e-15
c11 i9__net1 vss 9.35839e-15
c12 i7__net1 vss 2.03708e-15
mi8__m1_96__rcx vddio i8__net1 chipdriverout vddio g45p2svt L=150e-9 W=9.6e-6 AD=1.92e-12 AS=1.92e-12 PD=19.6e-6 PS=19.6e-6 NRD=468.75e-3 NRS=468.75e-3 M=1
mi8__m1_95__rcx chipdriverout i8__net1 vddio vddio g45p2svt L=150e-9 W=9.6e-6 AD=1.92e-12 AS=1.92e-12 PD=19.6e-6 PS=19.6e-6 NRD=468.75e-3 NRS=468.75e-3 M=1
mi8__m1_94__rcx vddio i8__net1 chipdriverout vddio g45p2svt L=150e-9 W=9.6e-6 AD=1.92e-12 AS=1.92e-12 PD=19.6e-6 PS=19.6e-6 NRD=468.75e-3 NRS=468.75e-3 M=1
mi8__m1_93__rcx chipdriverout i8__net1 vddio vddio g45p2svt L=150e-9 W=9.6e-6 AD=1.92e-12 AS=1.92e-12 PD=19.6e-6 PS=19.6e-6 NRD=468.75e-3 NRS=468.75e-3 M=1
mi8__m1_92__rcx vddio i8__net1 chipdriverout vddio g45p2svt L=150e-9 W=9.6e-6 AD=1.92e-12 AS=1.92e-12 PD=19.6e-6 PS=19.6e-6 NRD=468.75e-3 NRS=468.75e-3 M=1
mi8__m1_91__rcx chipdriverout i8__net1 vddio vddio g45p2svt L=150e-9 W=9.6e-6 AD=1.44e-12 AS=1.44e-12 PD=19.55e-6 PS=19.55e-6 NRD=468.75e-3 NRS=468.75e-3 M=1
mi8__m1_90__rcx vddio i8__net1 chipdriverout vddio g45p2svt L=150e-9 W=9.6e-6 AD=1.92e-12 AS=1.92e-12 PD=19.6e-6 PS=19.6e-6 NRD=468.75e-3 NRS=468.75e-3 M=1
mi8__m1_89__rcx chipdriverout i8__net1 vddio vddio g45p2svt L=150e-9 W=9.6e-6 AD=1.92e-12 AS=1.92e-12 PD=19.6e-6 PS=19.6e-6 NRD=468.75e-3 NRS=468.75e-3 M=1
mi8__m1_88__rcx vddio i8__net1 chipdriverout vddio g45p2svt L=150e-9 W=9.6e-6 AD=1.92e-12 AS=1.92e-12 PD=19.6e-6 PS=19.6e-6 NRD=468.75e-3 NRS=468.75e-3 M=1
mi8__m1_87__rcx chipdriverout i8__net1 vddio vddio g45p2svt L=150e-9 W=9.6e-6 AD=1.92e-12 AS=1.92e-12 PD=19.6e-6 PS=19.6e-6 NRD=468.75e-3 NRS=468.75e-3 M=1
mi8__m1_86__rcx vddio i8__net1 chipdriverout vddio g45p2svt L=150e-9 W=9.6e-6 AD=1.92e-12 AS=1.92e-12 PD=19.6e-6 PS=19.6e-6 NRD=468.75e-3 NRS=468.75e-3 M=1
mi8__m1_85__rcx chipdriverout i8__net1 vddio vddio g45p2svt L=150e-9 W=9.6e-6 AD=1.92e-12 AS=1.92e-12 PD=19.6e-6 PS=19.6e-6 NRD=468.75e-3 NRS=468.75e-3 M=1
mi8__m1_84__rcx vddio i8__net1 chipdriverout vddio g45p2svt L=150e-9 W=9.6e-6 AD=1.92e-12 AS=1.92e-12 PD=19.6e-6 PS=19.6e-6 NRD=468.75e-3 NRS=468.75e-3 M=1
mi8__m1_83__rcx chipdriverout i8__net1 vddio vddio g45p2svt L=150e-9 W=9.6e-6 AD=1.92e-12 AS=1.92e-12 PD=19.6e-6 PS=19.6e-6 NRD=468.75e-3 NRS=468.75e-3 M=1
mi8__m1_82__rcx vddio i8__net1 chipdriverout vddio g45p2svt L=150e-9 W=9.6e-6 AD=1.92e-12 AS=1.92e-12 PD=19.6e-6 PS=19.6e-6 NRD=468.75e-3 NRS=468.75e-3 M=1
mi8__m1_81__rcx chipdriverout i8__net1 vddio vddio g45p2svt L=150e-9 W=9.6e-6 AD=1.92e-12 AS=1.92e-12 PD=19.6e-6 PS=19.6e-6 NRD=468.75e-3 NRS=468.75e-3 M=1
mi8__m1_80__rcx vddio i8__net1 chipdriverout vddio g45p2svt L=150e-9 W=9.6e-6 AD=1.92e-12 AS=1.92e-12 PD=19.6e-6 PS=19.6e-6 NRD=468.75e-3 NRS=468.75e-3 M=1
mi8__m1_79__rcx chipdriverout i8__net1 vddio vddio g45p2svt L=150e-9 W=9.6e-6 AD=1.92e-12 AS=1.92e-12 PD=19.6e-6 PS=19.6e-6 NRD=468.75e-3 NRS=468.75e-3 M=1
mi8__m1_78__rcx vddio i8__net1 chipdriverout vddio g45p2svt L=150e-9 W=9.6e-6 AD=1.92e-12 AS=1.92e-12 PD=19.6e-6 PS=19.6e-6 NRD=468.75e-3 NRS=468.75e-3 M=1
mi8__m1_77__rcx chipdriverout i8__net1 vddio vddio g45p2svt L=150e-9 W=9.6e-6 AD=1.92e-12 AS=1.92e-12 PD=19.6e-6 PS=19.6e-6 NRD=468.75e-3 NRS=468.75e-3 M=1
mi8__m1_76__rcx vddio i8__net1 chipdriverout vddio g45p2svt L=150e-9 W=9.6e-6 AD=1.92e-12 AS=1.92e-12 PD=19.6e-6 PS=19.6e-6 NRD=468.75e-3 NRS=468.75e-3 M=1
mi8__m1_75__rcx chipdriverout i8__net1 vddio vddio g45p2svt L=150e-9 W=9.6e-6 AD=1.92e-12 AS=1.92e-12 PD=19.6e-6 PS=19.6e-6 NRD=468.75e-3 NRS=468.75e-3 M=1
mi8__m1_74__rcx vddio i8__net1 chipdriverout vddio g45p2svt L=150e-9 W=9.6e-6 AD=1.92e-12 AS=1.92e-12 PD=19.6e-6 PS=19.6e-6 NRD=468.75e-3 NRS=468.75e-3 M=1
mi8__m1_73__rcx chipdriverout i8__net1 vddio vddio g45p2svt L=150e-9 W=9.6e-6 AD=1.92e-12 AS=1.92e-12 PD=19.6e-6 PS=19.6e-6 NRD=468.75e-3 NRS=468.75e-3 M=1
mi8__m1_72__rcx vddio i8__net1 chipdriverout vddio g45p2svt L=150e-9 W=9.6e-6 AD=1.92e-12 AS=1.92e-12 PD=19.6e-6 PS=19.6e-6 NRD=468.75e-3 NRS=468.75e-3 M=1
mi8__m1_71__rcx chipdriverout i8__net1 vddio vddio g45p2svt L=150e-9 W=9.6e-6 AD=1.92e-12 AS=1.92e-12 PD=19.6e-6 PS=19.6e-6 NRD=468.75e-3 NRS=468.75e-3 M=1
mi8__m1_70__rcx vddio i8__net1 chipdriverout vddio g45p2svt L=150e-9 W=9.6e-6 AD=1.92e-12 AS=1.92e-12 PD=19.6e-6 PS=19.6e-6 NRD=468.75e-3 NRS=468.75e-3 M=1
mi8__m1_69__rcx chipdriverout i8__net1 vddio vddio g45p2svt L=150e-9 W=9.6e-6 AD=1.92e-12 AS=1.92e-12 PD=19.6e-6 PS=19.6e-6 NRD=468.75e-3 NRS=468.75e-3 M=1
mi8__m1_68__rcx vddio i8__net1 chipdriverout vddio g45p2svt L=150e-9 W=9.6e-6 AD=1.92e-12 AS=1.92e-12 PD=19.6e-6 PS=19.6e-6 NRD=468.75e-3 NRS=468.75e-3 M=1
mi8__m1_67__rcx chipdriverout i8__net1 vddio vddio g45p2svt L=150e-9 W=9.6e-6 AD=1.92e-12 AS=1.92e-12 PD=19.6e-6 PS=19.6e-6 NRD=468.75e-3 NRS=468.75e-3 M=1
mi8__m1_66__rcx vddio i8__net1 chipdriverout vddio g45p2svt L=150e-9 W=9.6e-6 AD=1.92e-12 AS=1.92e-12 PD=19.6e-6 PS=19.6e-6 NRD=468.75e-3 NRS=468.75e-3 M=1
mi8__m1_65__rcx chipdriverout i8__net1 vddio vddio g45p2svt L=150e-9 W=9.6e-6 AD=1.92e-12 AS=1.92e-12 PD=19.6e-6 PS=19.6e-6 NRD=468.75e-3 NRS=468.75e-3 M=1
mi8__m1_64__rcx vddio i8__net1 chipdriverout vddio g45p2svt L=150e-9 W=9.6e-6 AD=1.92e-12 AS=1.92e-12 PD=19.6e-6 PS=19.6e-6 NRD=468.75e-3 NRS=468.75e-3 M=1
mi8__m1_63__rcx chipdriverout i8__net1 vddio vddio g45p2svt L=150e-9 W=9.6e-6 AD=1.92e-12 AS=1.92e-12 PD=19.6e-6 PS=19.6e-6 NRD=468.75e-3 NRS=468.75e-3 M=1
mi8__m1_62__rcx vddio i8__net1 chipdriverout vddio g45p2svt L=150e-9 W=9.6e-6 AD=1.92e-12 AS=1.92e-12 PD=19.6e-6 PS=19.6e-6 NRD=468.75e-3 NRS=468.75e-3 M=1
mi8__m1_61__rcx chipdriverout i8__net1 vddio vddio g45p2svt L=150e-9 W=9.6e-6 AD=1.92e-12 AS=1.92e-12 PD=19.6e-6 PS=19.6e-6 NRD=468.75e-3 NRS=468.75e-3 M=1
mi8__m1_60__rcx vddio i8__net1 chipdriverout vddio g45p2svt L=150e-9 W=9.6e-6 AD=1.92e-12 AS=1.92e-12 PD=19.6e-6 PS=19.6e-6 NRD=468.75e-3 NRS=468.75e-3 M=1
mi8__m1_59__rcx chipdriverout i8__net1 vddio vddio g45p2svt L=150e-9 W=9.6e-6 AD=1.92e-12 AS=1.92e-12 PD=19.6e-6 PS=19.6e-6 NRD=468.75e-3 NRS=468.75e-3 M=1
mi8__m1_58__rcx vddio i8__net1 chipdriverout vddio g45p2svt L=150e-9 W=9.6e-6 AD=1.92e-12 AS=1.92e-12 PD=19.6e-6 PS=19.6e-6 NRD=468.75e-3 NRS=468.75e-3 M=1
mi8__m1_57__rcx chipdriverout i8__net1 vddio vddio g45p2svt L=150e-9 W=9.6e-6 AD=1.92e-12 AS=1.92e-12 PD=19.6e-6 PS=19.6e-6 NRD=468.75e-3 NRS=468.75e-3 M=1
mi8__m1_56__rcx vddio i8__net1 chipdriverout vddio g45p2svt L=150e-9 W=9.6e-6 AD=1.92e-12 AS=1.92e-12 PD=19.6e-6 PS=19.6e-6 NRD=468.75e-3 NRS=468.75e-3 M=1
mi8__m1_55__rcx chipdriverout i8__net1 vddio vddio g45p2svt L=150e-9 W=9.6e-6 AD=1.92e-12 AS=1.92e-12 PD=19.6e-6 PS=19.6e-6 NRD=468.75e-3 NRS=468.75e-3 M=1
mi8__m1_54__rcx vddio i8__net1 chipdriverout vddio g45p2svt L=150e-9 W=9.6e-6 AD=1.92e-12 AS=1.92e-12 PD=19.6e-6 PS=19.6e-6 NRD=468.75e-3 NRS=468.75e-3 M=1
mi8__m1_53__rcx chipdriverout i8__net1 vddio vddio g45p2svt L=150e-9 W=9.6e-6 AD=1.92e-12 AS=1.92e-12 PD=19.6e-6 PS=19.6e-6 NRD=468.75e-3 NRS=468.75e-3 M=1
mi8__m1_52__rcx vddio i8__net1 chipdriverout vddio g45p2svt L=150e-9 W=9.6e-6 AD=1.92e-12 AS=1.92e-12 PD=19.6e-6 PS=19.6e-6 NRD=468.75e-3 NRS=468.75e-3 M=1
mi8__m1_51__rcx chipdriverout i8__net1 vddio vddio g45p2svt L=150e-9 W=9.6e-6 AD=1.92e-12 AS=1.92e-12 PD=19.6e-6 PS=19.6e-6 NRD=468.75e-3 NRS=468.75e-3 M=1
mi8__m1_50__rcx vddio i8__net1 chipdriverout vddio g45p2svt L=150e-9 W=9.6e-6 AD=1.92e-12 AS=1.92e-12 PD=19.6e-6 PS=19.6e-6 NRD=468.75e-3 NRS=468.75e-3 M=1
mi8__m1_49__rcx chipdriverout i8__net1 vddio vddio g45p2svt L=150e-9 W=9.6e-6 AD=1.92e-12 AS=1.92e-12 PD=19.6e-6 PS=19.6e-6 NRD=468.75e-3 NRS=468.75e-3 M=1
mi8__m1_48__rcx chipdriverout i8__net1 vddio vddio g45p2svt L=150e-9 W=9.6e-6 AD=1.92e-12 AS=1.92e-12 PD=19.6e-6 PS=19.6e-6 NRD=468.75e-3 NRS=468.75e-3 M=1
mi8__m1_47__rcx chipdriverout i8__net1 vddio vddio g45p2svt L=150e-9 W=9.6e-6 AD=1.92e-12 AS=1.92e-12 PD=19.6e-6 PS=19.6e-6 NRD=468.75e-3 NRS=468.75e-3 M=1
mi8__m1_46__rcx vddio i8__net1 chipdriverout vddio g45p2svt L=150e-9 W=9.6e-6 AD=1.92e-12 AS=1.92e-12 PD=19.6e-6 PS=19.6e-6 NRD=468.75e-3 NRS=468.75e-3 M=1
mi8__m1_45__rcx chipdriverout i8__net1 vddio vddio g45p2svt L=150e-9 W=9.6e-6 AD=1.92e-12 AS=1.92e-12 PD=19.6e-6 PS=19.6e-6 NRD=468.75e-3 NRS=468.75e-3 M=1
mi8__m1_44__rcx vddio i8__net1 chipdriverout vddio g45p2svt L=150e-9 W=9.6e-6 AD=1.92e-12 AS=1.92e-12 PD=19.6e-6 PS=19.6e-6 NRD=468.75e-3 NRS=468.75e-3 M=1
mi8__m1_43__rcx chipdriverout i8__net1 vddio vddio g45p2svt L=150e-9 W=9.6e-6 AD=1.92e-12 AS=1.92e-12 PD=19.6e-6 PS=19.6e-6 NRD=468.75e-3 NRS=468.75e-3 M=1
mi8__m1_42__rcx vddio i8__net1 chipdriverout vddio g45p2svt L=150e-9 W=9.6e-6 AD=1.92e-12 AS=1.92e-12 PD=19.6e-6 PS=19.6e-6 NRD=468.75e-3 NRS=468.75e-3 M=1
mi8__m1_41__rcx chipdriverout i8__net1 vddio vddio g45p2svt L=150e-9 W=9.6e-6 AD=1.92e-12 AS=1.92e-12 PD=19.6e-6 PS=19.6e-6 NRD=468.75e-3 NRS=468.75e-3 M=1
mi8__m1_40__rcx vddio i8__net1 chipdriverout vddio g45p2svt L=150e-9 W=9.6e-6 AD=1.92e-12 AS=1.92e-12 PD=19.6e-6 PS=19.6e-6 NRD=468.75e-3 NRS=468.75e-3 M=1
mi8__m1_39__rcx chipdriverout i8__net1 vddio vddio g45p2svt L=150e-9 W=9.6e-6 AD=1.92e-12 AS=1.92e-12 PD=19.6e-6 PS=19.6e-6 NRD=468.75e-3 NRS=468.75e-3 M=1
mi8__m1_38__rcx vddio i8__net1 chipdriverout vddio g45p2svt L=150e-9 W=9.6e-6 AD=1.92e-12 AS=1.92e-12 PD=19.6e-6 PS=19.6e-6 NRD=468.75e-3 NRS=468.75e-3 M=1
mi8__m1_37__rcx chipdriverout i8__net1 vddio vddio g45p2svt L=150e-9 W=9.6e-6 AD=1.92e-12 AS=1.92e-12 PD=19.6e-6 PS=19.6e-6 NRD=468.75e-3 NRS=468.75e-3 M=1
mi8__m1_36__rcx vddio i8__net1 chipdriverout vddio g45p2svt L=150e-9 W=9.6e-6 AD=1.92e-12 AS=1.92e-12 PD=19.6e-6 PS=19.6e-6 NRD=468.75e-3 NRS=468.75e-3 M=1
mi8__m1_35__rcx chipdriverout i8__net1 vddio vddio g45p2svt L=150e-9 W=9.6e-6 AD=1.92e-12 AS=1.92e-12 PD=19.6e-6 PS=19.6e-6 NRD=468.75e-3 NRS=468.75e-3 M=1
mi8__m1_34__rcx vddio i8__net1 chipdriverout vddio g45p2svt L=150e-9 W=9.6e-6 AD=1.92e-12 AS=1.92e-12 PD=19.6e-6 PS=19.6e-6 NRD=468.75e-3 NRS=468.75e-3 M=1
mi8__m1_33__rcx chipdriverout i8__net1 vddio vddio g45p2svt L=150e-9 W=9.6e-6 AD=1.92e-12 AS=1.92e-12 PD=19.6e-6 PS=19.6e-6 NRD=468.75e-3 NRS=468.75e-3 M=1
mi8__m1_32__rcx vddio i8__net1 chipdriverout vddio g45p2svt L=150e-9 W=9.6e-6 AD=1.92e-12 AS=1.92e-12 PD=19.6e-6 PS=19.6e-6 NRD=468.75e-3 NRS=468.75e-3 M=1
mi8__m1_31__rcx chipdriverout i8__net1 vddio vddio g45p2svt L=150e-9 W=9.6e-6 AD=1.92e-12 AS=1.92e-12 PD=19.6e-6 PS=19.6e-6 NRD=468.75e-3 NRS=468.75e-3 M=1
mi8__m1_30__rcx vddio i8__net1 chipdriverout vddio g45p2svt L=150e-9 W=9.6e-6 AD=1.92e-12 AS=1.92e-12 PD=19.6e-6 PS=19.6e-6 NRD=468.75e-3 NRS=468.75e-3 M=1
mi8__m1_29__rcx chipdriverout i8__net1 vddio vddio g45p2svt L=150e-9 W=9.6e-6 AD=1.92e-12 AS=1.92e-12 PD=19.6e-6 PS=19.6e-6 NRD=468.75e-3 NRS=468.75e-3 M=1
mi8__m1_28__rcx vddio i8__net1 chipdriverout vddio g45p2svt L=150e-9 W=9.6e-6 AD=1.92e-12 AS=1.92e-12 PD=19.6e-6 PS=19.6e-6 NRD=468.75e-3 NRS=468.75e-3 M=1
mi8__m1_27__rcx chipdriverout i8__net1 vddio vddio g45p2svt L=150e-9 W=9.6e-6 AD=1.92e-12 AS=1.92e-12 PD=19.6e-6 PS=19.6e-6 NRD=468.75e-3 NRS=468.75e-3 M=1
mi8__m1_26__rcx vddio i8__net1 chipdriverout vddio g45p2svt L=150e-9 W=9.6e-6 AD=1.92e-12 AS=1.92e-12 PD=19.6e-6 PS=19.6e-6 NRD=468.75e-3 NRS=468.75e-3 M=1
mi8__m1_25__rcx chipdriverout i8__net1 vddio vddio g45p2svt L=150e-9 W=9.6e-6 AD=1.92e-12 AS=1.92e-12 PD=19.6e-6 PS=19.6e-6 NRD=468.75e-3 NRS=468.75e-3 M=1
mi8__m1_24__rcx vddio i8__net1 chipdriverout vddio g45p2svt L=150e-9 W=9.6e-6 AD=1.92e-12 AS=1.92e-12 PD=19.6e-6 PS=19.6e-6 NRD=468.75e-3 NRS=468.75e-3 M=1
mi8__m1_23__rcx chipdriverout i8__net1 vddio vddio g45p2svt L=150e-9 W=9.6e-6 AD=1.92e-12 AS=1.92e-12 PD=19.6e-6 PS=19.6e-6 NRD=468.75e-3 NRS=468.75e-3 M=1
mi8__m1_22__rcx vddio i8__net1 chipdriverout vddio g45p2svt L=150e-9 W=9.6e-6 AD=1.92e-12 AS=1.92e-12 PD=19.6e-6 PS=19.6e-6 NRD=468.75e-3 NRS=468.75e-3 M=1
mi8__m1_21__rcx chipdriverout i8__net1 vddio vddio g45p2svt L=150e-9 W=9.6e-6 AD=1.92e-12 AS=1.92e-12 PD=19.6e-6 PS=19.6e-6 NRD=468.75e-3 NRS=468.75e-3 M=1
mi8__m1_20__rcx vddio i8__net1 chipdriverout vddio g45p2svt L=150e-9 W=9.6e-6 AD=1.92e-12 AS=1.92e-12 PD=19.6e-6 PS=19.6e-6 NRD=468.75e-3 NRS=468.75e-3 M=1
mi8__m1_19__rcx chipdriverout i8__net1 vddio vddio g45p2svt L=150e-9 W=9.6e-6 AD=1.92e-12 AS=1.92e-12 PD=19.6e-6 PS=19.6e-6 NRD=468.75e-3 NRS=468.75e-3 M=1
mi8__m1_18__rcx vddio i8__net1 chipdriverout vddio g45p2svt L=150e-9 W=9.6e-6 AD=1.92e-12 AS=1.92e-12 PD=19.6e-6 PS=19.6e-6 NRD=468.75e-3 NRS=468.75e-3 M=1
mi8__m1_17__rcx chipdriverout i8__net1 vddio vddio g45p2svt L=150e-9 W=9.6e-6 AD=1.92e-12 AS=1.92e-12 PD=19.6e-6 PS=19.6e-6 NRD=468.75e-3 NRS=468.75e-3 M=1
mi8__m1_16__rcx vddio i8__net1 chipdriverout vddio g45p2svt L=150e-9 W=9.6e-6 AD=1.92e-12 AS=1.92e-12 PD=19.6e-6 PS=19.6e-6 NRD=468.75e-3 NRS=468.75e-3 M=1
mi8__m1_15__rcx chipdriverout i8__net1 vddio vddio g45p2svt L=150e-9 W=9.6e-6 AD=1.92e-12 AS=1.92e-12 PD=19.6e-6 PS=19.6e-6 NRD=468.75e-3 NRS=468.75e-3 M=1
mi8__m1_14__rcx vddio i8__net1 chipdriverout vddio g45p2svt L=150e-9 W=9.6e-6 AD=1.92e-12 AS=1.92e-12 PD=19.6e-6 PS=19.6e-6 NRD=468.75e-3 NRS=468.75e-3 M=1
mi8__m1_13__rcx chipdriverout i8__net1 vddio vddio g45p2svt L=150e-9 W=9.6e-6 AD=1.92e-12 AS=1.92e-12 PD=19.6e-6 PS=19.6e-6 NRD=468.75e-3 NRS=468.75e-3 M=1
mi8__m1_12__rcx vddio i8__net1 chipdriverout vddio g45p2svt L=150e-9 W=9.6e-6 AD=1.92e-12 AS=1.92e-12 PD=19.6e-6 PS=19.6e-6 NRD=468.75e-3 NRS=468.75e-3 M=1
mi8__m1_11__rcx chipdriverout i8__net1 vddio vddio g45p2svt L=150e-9 W=9.6e-6 AD=1.92e-12 AS=1.92e-12 PD=19.6e-6 PS=19.6e-6 NRD=468.75e-3 NRS=468.75e-3 M=1
mi8__m1_10__rcx vddio i8__net1 chipdriverout vddio g45p2svt L=150e-9 W=9.6e-6 AD=1.92e-12 AS=1.92e-12 PD=19.6e-6 PS=19.6e-6 NRD=468.75e-3 NRS=468.75e-3 M=1
mi8__m1_9__rcx chipdriverout i8__net1 vddio vddio g45p2svt L=150e-9 W=9.6e-6 AD=1.92e-12 AS=1.92e-12 PD=19.6e-6 PS=19.6e-6 NRD=468.75e-3 NRS=468.75e-3 M=1
mi8__m1_8__rcx vddio i8__net1 chipdriverout vddio g45p2svt L=150e-9 W=9.6e-6 AD=1.92e-12 AS=1.92e-12 PD=19.6e-6 PS=19.6e-6 NRD=468.75e-3 NRS=468.75e-3 M=1
mi8__m1_7__rcx chipdriverout i8__net1 vddio vddio g45p2svt L=150e-9 W=9.6e-6 AD=1.92e-12 AS=1.92e-12 PD=19.6e-6 PS=19.6e-6 NRD=468.75e-3 NRS=468.75e-3 M=1
mi8__m1_6__rcx vddio i8__net1 chipdriverout vddio g45p2svt L=150e-9 W=9.6e-6 AD=1.92e-12 AS=1.92e-12 PD=19.6e-6 PS=19.6e-6 NRD=468.75e-3 NRS=468.75e-3 M=1
mi8__m1_5__rcx vddio i8__net1 chipdriverout vddio g45p2svt L=150e-9 W=9.6e-6 AD=1.92e-12 AS=1.92e-12 PD=19.6e-6 PS=19.6e-6 NRD=468.75e-3 NRS=468.75e-3 M=1
mi8__m1_4__rcx chipdriverout i8__net1 vddio vddio g45p2svt L=150e-9 W=9.6e-6 AD=1.92e-12 AS=1.92e-12 PD=19.6e-6 PS=19.6e-6 NRD=468.75e-3 NRS=468.75e-3 M=1
mi8__m1_3__rcx vddio i8__net1 chipdriverout vddio g45p2svt L=150e-9 W=9.6e-6 AD=1.92e-12 AS=1.92e-12 PD=19.6e-6 PS=19.6e-6 NRD=468.75e-3 NRS=468.75e-3 M=1
mi8__m1_2__rcx chipdriverout i8__net1 vddio vddio g45p2svt L=150e-9 W=9.6e-6 AD=1.92e-12 AS=1.92e-12 PD=19.6e-6 PS=19.6e-6 NRD=468.75e-3 NRS=468.75e-3 M=1
mi8__m1_1__rcx vddio i8__net1 chipdriverout vddio g45p2svt L=150e-9 W=9.6e-6 AD=1.92e-12 AS=1.92e-12 PD=19.6e-6 PS=19.6e-6 NRD=468.75e-3 NRS=468.75e-3 M=1
mi8__m1 chipdriverout i8__net1 vddio vddio g45p2svt L=150e-9 W=9.6e-6 AD=1.92e-12 AS=1.92e-12 PD=19.55e-6 PS=19.55e-6 NRD=468.75e-3 NRS=468.75e-3 M=1
mi8__m0_27__rcx vddio net4 i8__net1 vddio g45p2svt L=150e-9 W=9.6e-6 AD=1.92e-12 AS=1.92e-12 PD=19.6e-6 PS=19.6e-6 NRD=468.75e-3 NRS=468.75e-3 M=1
mi8__m0_26__rcx i8__net1 net4 vddio vddio g45p2svt L=150e-9 W=9.6e-6 AD=1.92e-12 AS=1.92e-12 PD=19.6e-6 PS=19.6e-6 NRD=468.75e-3 NRS=468.75e-3 M=1
mi8__m0_25__rcx vddio net4 i8__net1 vddio g45p2svt L=150e-9 W=9.6e-6 AD=1.92e-12 AS=1.92e-12 PD=19.6e-6 PS=19.6e-6 NRD=468.75e-3 NRS=468.75e-3 M=1
mi8__m0_24__rcx i8__net1 net4 vddio vddio g45p2svt L=150e-9 W=9.6e-6 AD=1.92e-12 AS=1.92e-12 PD=19.6e-6 PS=19.6e-6 NRD=468.75e-3 NRS=468.75e-3 M=1
mi8__m0_23__rcx vddio net4 i8__net1 vddio g45p2svt L=150e-9 W=9.6e-6 AD=1.92e-12 AS=1.92e-12 PD=19.6e-6 PS=19.6e-6 NRD=468.75e-3 NRS=468.75e-3 M=1
mi8__m0_22__rcx i8__net1 net4 vddio vddio g45p2svt L=150e-9 W=9.6e-6 AD=1.92e-12 AS=1.92e-12 PD=19.6e-6 PS=19.6e-6 NRD=468.75e-3 NRS=468.75e-3 M=1
mi8__m0_21__rcx vddio net4 i8__net1 vddio g45p2svt L=150e-9 W=9.6e-6 AD=1.44e-12 AS=1.44e-12 PD=19.55e-6 PS=19.55e-6 NRD=468.75e-3 NRS=468.75e-3 M=1
mi8__m0_20__rcx i8__net1 net4 vddio vddio g45p2svt L=150e-9 W=9.6e-6 AD=1.92e-12 AS=1.92e-12 PD=19.6e-6 PS=19.6e-6 NRD=468.75e-3 NRS=468.75e-3 M=1
mi8__m0_19__rcx vddio net4 i8__net1 vddio g45p2svt L=150e-9 W=9.6e-6 AD=1.92e-12 AS=1.92e-12 PD=19.6e-6 PS=19.6e-6 NRD=468.75e-3 NRS=468.75e-3 M=1
mi8__m0_18__rcx i8__net1 net4 vddio vddio g45p2svt L=150e-9 W=9.6e-6 AD=1.92e-12 AS=1.92e-12 PD=19.6e-6 PS=19.6e-6 NRD=468.75e-3 NRS=468.75e-3 M=1
mi8__m0_17__rcx vddio net4 i8__net1 vddio g45p2svt L=150e-9 W=9.6e-6 AD=1.92e-12 AS=1.92e-12 PD=19.6e-6 PS=19.6e-6 NRD=468.75e-3 NRS=468.75e-3 M=1
mi8__m0_16__rcx i8__net1 net4 vddio vddio g45p2svt L=150e-9 W=9.6e-6 AD=1.92e-12 AS=1.92e-12 PD=19.6e-6 PS=19.6e-6 NRD=468.75e-3 NRS=468.75e-3 M=1
mi8__m0_15__rcx vddio net4 i8__net1 vddio g45p2svt L=150e-9 W=9.6e-6 AD=1.92e-12 AS=1.92e-12 PD=19.6e-6 PS=19.6e-6 NRD=468.75e-3 NRS=468.75e-3 M=1
mi8__m0_14__rcx i8__net1 net4 vddio vddio g45p2svt L=150e-9 W=9.6e-6 AD=1.92e-12 AS=1.92e-12 PD=19.6e-6 PS=19.6e-6 NRD=468.75e-3 NRS=468.75e-3 M=1
mi8__m0_13__rcx vddio net4 i8__net1 vddio g45p2svt L=150e-9 W=9.6e-6 AD=1.92e-12 AS=1.92e-12 PD=19.6e-6 PS=19.6e-6 NRD=468.75e-3 NRS=468.75e-3 M=1
mi8__m0_12__rcx i8__net1 net4 vddio vddio g45p2svt L=150e-9 W=9.6e-6 AD=1.92e-12 AS=1.92e-12 PD=19.6e-6 PS=19.6e-6 NRD=468.75e-3 NRS=468.75e-3 M=1
mi8__m0_11__rcx vddio net4 i8__net1 vddio g45p2svt L=150e-9 W=9.6e-6 AD=1.92e-12 AS=1.92e-12 PD=19.6e-6 PS=19.6e-6 NRD=468.75e-3 NRS=468.75e-3 M=1
mi8__m0_10__rcx i8__net1 net4 vddio vddio g45p2svt L=150e-9 W=9.6e-6 AD=1.92e-12 AS=1.92e-12 PD=19.6e-6 PS=19.6e-6 NRD=468.75e-3 NRS=468.75e-3 M=1
mi8__m0_9__rcx vddio net4 i8__net1 vddio g45p2svt L=150e-9 W=9.6e-6 AD=1.92e-12 AS=1.92e-12 PD=19.6e-6 PS=19.6e-6 NRD=468.75e-3 NRS=468.75e-3 M=1
mi8__m0_8__rcx i8__net1 net4 vddio vddio g45p2svt L=150e-9 W=9.6e-6 AD=1.92e-12 AS=1.92e-12 PD=19.6e-6 PS=19.6e-6 NRD=468.75e-3 NRS=468.75e-3 M=1
mi8__m0_7__rcx vddio net4 i8__net1 vddio g45p2svt L=150e-9 W=9.6e-6 AD=1.92e-12 AS=1.92e-12 PD=19.6e-6 PS=19.6e-6 NRD=468.75e-3 NRS=468.75e-3 M=1
mi8__m0_6__rcx i8__net1 net4 vddio vddio g45p2svt L=150e-9 W=9.6e-6 AD=1.92e-12 AS=1.92e-12 PD=19.55e-6 PS=19.55e-6 NRD=468.75e-3 NRS=468.75e-3 M=1
mi8__m0_5__rcx vddio net4 i8__net1 vddio g45p2svt L=150e-9 W=9.6e-6 AD=1.92e-12 AS=1.92e-12 PD=19.6e-6 PS=19.6e-6 NRD=468.75e-3 NRS=468.75e-3 M=1
mi8__m0_4__rcx i8__net1 net4 vddio vddio g45p2svt L=150e-9 W=9.6e-6 AD=1.92e-12 AS=1.92e-12 PD=19.6e-6 PS=19.6e-6 NRD=468.75e-3 NRS=468.75e-3 M=1
mi8__m0_3__rcx vddio net4 i8__net1 vddio g45p2svt L=150e-9 W=9.6e-6 AD=1.92e-12 AS=1.92e-12 PD=19.6e-6 PS=19.6e-6 NRD=468.75e-3 NRS=468.75e-3 M=1
mi8__m0_2__rcx i8__net1 net4 vddio vddio g45p2svt L=150e-9 W=9.6e-6 AD=1.92e-12 AS=1.92e-12 PD=19.6e-6 PS=19.6e-6 NRD=468.75e-3 NRS=468.75e-3 M=1
mi8__m0_1__rcx vddio net4 i8__net1 vddio g45p2svt L=150e-9 W=9.6e-6 AD=1.92e-12 AS=1.92e-12 PD=19.6e-6 PS=19.6e-6 NRD=468.75e-3 NRS=468.75e-3 M=1
mi8__m0 i8__net1 net4 vddio vddio g45p2svt L=150e-9 W=9.6e-6 AD=1.92e-12 AS=1.92e-12 PD=19.6e-6 PS=19.6e-6 NRD=468.75e-3 NRS=468.75e-3 M=1
mi6__m3_1__rcx vddio i6__outinv net1 vddio g45p2svt L=150e-9 W=320e-9 AD=48e-15 AS=48e-15 PD=990e-9 PS=990e-9 NRD=468.75e-3 NRS=468.75e-3 M=1
mi6__m2_1__rcx i6__outinv net1 vddio vddio g45p2svt L=150e-9 W=320e-9 AD=64e-15 AS=64e-15 PD=990e-9 PS=990e-9 NRD=468.75e-3 NRS=468.75e-3 M=1
mi6__m2 vddio net1 i6__outinv vddio g45p2svt L=150e-9 W=320e-9 AD=48e-15 AS=48e-15 PD=990e-9 PS=990e-9 NRD=468.75e-3 NRS=468.75e-3 M=1
mi6__m3 net1 i6__outinv vddio vddio g45p2svt L=150e-9 W=320e-9 AD=64e-15 AS=64e-15 PD=990e-9 PS=990e-9 NRD=468.75e-3 NRS=468.75e-3 M=1
mi9__m3_20__rcx net4 i9__net1 vddio vddio g45p2svt L=150e-9 W=3.84e-6 AD=768e-15 AS=768e-15 PD=8.08e-6 PS=8.08e-6 NRD=468.75e-3 NRS=468.75e-3 M=1
mi9__m3_19__rcx vddio i9__net1 net4 vddio g45p2svt L=150e-9 W=3.84e-6 AD=768e-15 AS=768e-15 PD=8.08e-6 PS=8.08e-6 NRD=468.75e-3 NRS=468.75e-3 M=1
mi9__m3_18__rcx net4 i9__net1 vddio vddio g45p2svt L=150e-9 W=3.84e-6 AD=768e-15 AS=768e-15 PD=8.08e-6 PS=8.08e-6 NRD=468.75e-3 NRS=468.75e-3 M=1
mi9__m3_17__rcx vddio i9__net1 net4 vddio g45p2svt L=150e-9 W=3.84e-6 AD=768e-15 AS=768e-15 PD=8.08e-6 PS=8.08e-6 NRD=468.75e-3 NRS=468.75e-3 M=1
mi9__m3_16__rcx net4 i9__net1 vddio vddio g45p2svt L=150e-9 W=3.84e-6 AD=768e-15 AS=768e-15 PD=8.08e-6 PS=8.08e-6 NRD=468.75e-3 NRS=468.75e-3 M=1
mi9__m3_15__rcx vddio i9__net1 net4 vddio g45p2svt L=150e-9 W=3.84e-6 AD=768e-15 AS=768e-15 PD=8.08e-6 PS=8.08e-6 NRD=468.75e-3 NRS=468.75e-3 M=1
mi9__m3_14__rcx net4 i9__net1 vddio vddio g45p2svt L=150e-9 W=3.84e-6 AD=576e-15 AS=576e-15 PD=8.03e-6 PS=8.03e-6 NRD=468.75e-3 NRS=468.75e-3 M=1
mi9__m3_13__rcx vddio i9__net1 net4 vddio g45p2svt L=150e-9 W=3.84e-6 AD=768e-15 AS=768e-15 PD=8.08e-6 PS=8.08e-6 NRD=468.75e-3 NRS=468.75e-3 M=1
mi9__m3_12__rcx net4 i9__net1 vddio vddio g45p2svt L=150e-9 W=3.84e-6 AD=768e-15 AS=768e-15 PD=8.08e-6 PS=8.08e-6 NRD=468.75e-3 NRS=468.75e-3 M=1
mi9__m3_11__rcx vddio i9__net1 net4 vddio g45p2svt L=150e-9 W=3.84e-6 AD=768e-15 AS=768e-15 PD=8.08e-6 PS=8.08e-6 NRD=468.75e-3 NRS=468.75e-3 M=1
mi9__m3_10__rcx net4 i9__net1 vddio vddio g45p2svt L=150e-9 W=3.84e-6 AD=768e-15 AS=768e-15 PD=8.08e-6 PS=8.08e-6 NRD=468.75e-3 NRS=468.75e-3 M=1
mi9__m3_9__rcx vddio i9__net1 net4 vddio g45p2svt L=150e-9 W=3.84e-6 AD=768e-15 AS=768e-15 PD=8.08e-6 PS=8.08e-6 NRD=468.75e-3 NRS=468.75e-3 M=1
mi9__m3_8__rcx net4 i9__net1 vddio vddio g45p2svt L=150e-9 W=3.84e-6 AD=768e-15 AS=768e-15 PD=8.08e-6 PS=8.08e-6 NRD=468.75e-3 NRS=468.75e-3 M=1